Circuit: * C:\Users\surow\OneDrive\Documents\LTspiceXVII\Draft1.asc

WARNING: Less than two connections to node N007.  This node is used by Q9.
WARNING: Less than two connections to node N018.  This node is used by Q10.
WARNING: Less than two connections to node N014.  This node is used by V12.
Direct Newton iteration for .op point succeeded.

Date: Sat Aug 17 02:22:39 2024
Total elapsed time: 0.068 seconds.

tnom = 27
temp = 27
method = modified trap
totiter = 3674
traniter = 3653
tranpoints = 1432
accept = 1285
rejected = 147
matrix size = 58
fillins = 3
solver = Normal
Matrix Compiler1: 3.08 KB object code size  0.9/0.4/[0.3]
Matrix Compiler2: 4.41 KB object code size  0.4/0.5/[0.3]

