LTspice 24.0.12 for Windows
Circuit: * C:\Users\surow\OneDrive\Documents\LTspiceXVII\Draft2.asc
Start Time: Sun Sep  1 01:49:17 2024
Warning: Multiple definitions of model "2scr375p" Type: BJT
Warning: Multiple definitions of model "bc857b" Type: BJT
Warning: Multiple definitions of model "bc847c" Type: BJT
Warning: Multiple definitions of model "bc847b" Type: BJT
solver = Normal
Maximum thread count: 8
tnom = 27
temp = 27
method = modified trap
WARNING: Less than two connections to node nc_01.  This node is used by r17.
WARNING: Less than two connections to node nc_02.  This node is used by r49.
Direct Newton iteration for .op point succeeded.
Total elapsed time: 0.391 seconds.

